C THE LINE CONSTANTS FOR A 230 kV LINE ARE CALCULATED USING
C THE LOSSLESS HIGH-FREQUENCY APPROXIMATIONS
BEGIN NEW DATA CASE 
LINE CONSTANTS 
C 345678901234567890123456789012345678901234567890123456789012345678901234567890 
C COLUMN 1-3: PHASE NUM8ER 
C COLUMN 17,18: USUALLY A "4" 
C COLUMN 80: NUMBER OF CONOUCTORS IN THE BUNDLE 
C    4-8    9-16   19-26   27-34   35-42   43-50   51-58   59-66   59-72 73-78 
C   SKIN   RESIS   REACT    DIAM   HDRIZ  VTDWER    VMID   SEPAR   ALPHA  NAME 
C 
 1    .0   .001  3  1.0    0.994     0.      88.     50.      
 2    .0   .002  3  1.0    0.525     6.     100.     75.      
 2    .0   .002  3  1.0    0.525    40.     100.     75.      
BLANK CARD TERMINATING CONDUCTOR CARDS
C FREQUENCY CARD 
C 345678901234567890123456789012345678901234567890123456789012345678901234567890 
C COLUMN 44: ICAP 
C    1-8      9-18     19-28  30-35  37-42 
C  EARTH FREQUENCY    CARSON  PRINT  PRINT                  K.C. LEE FLAG
C  RESIS        HZ  ACCURACY    (C)   (Z)
      1.  500000.          0 111111 111111 1                         1 
BLANK CARD TERMINATING FREQUENCY CARDS 
BLANK CARD TERMINATING LINE CONSTANTS CASES 
BLANK CARD TERMINATING THE CASE