BEGIN NEW DATA CASE
C CASE 4: A LIGHTNING STROKE HITS A TOWER TOP ON A 230-KV TRANSMISSION LINE.
C THE VOLTAGE ACROSS THE OUTSIDE PHASE INSULATORS WILL BE CALCULATED.
C FIRST MISCELLANEOUS DATA CARD
C 345678901234567890123456789012345678901234567890123456789012345678901234567890
C  dT  >< Tmax >< Xopt >< Copt ><Epsiln>
C SECNDS SECONDS    0=MH    0=UF 
C                  F(HZ)   F(HZ) 
1.020E-8  6.0E-6     60.       0
C
C SECOND MISCELLANEOUS DATA CARD 
C 345678901234567890123456789012345678901234567890123456789012345678901234567890
C  PRINT    PLOT NETWORK   PR.SS  PR.MAX   I PUN   PUNCH    DUMP   MULT.  OUGNOS
C 0-EACH  0-EACH    0-NO    0-NO    0-NO    0-NO    0-NO    INTO  ENERG.   PRINT
C K-K-TH  K-K-TH   1=YES   1-YES   1-YES   1-YES   1-YES    DISK STUDIES    0-NO   
   40000       1       1       1       1       0       0       0       0
C
C BRANCH
C 345678901234567890123456789012345678901234567890123456789012345678901234567890
C < n1 >< n2 ><ref1><ref2>< R  >< L  >< C  ><Leng><><>
C < n1 >< n2 ><ref1><ref2>< R  >< A  >< B  ><Leng><><>
C TERMINATING SURGE IMPEDANCE AT THE ENDS OF THE LINE.
 1T5-PH                   240.40 
 2T5-GW                   46.800            158.23
C TOWER FOOTING RESISTANCES
  T1GRND                    50.0
  T2GRND                    25.0
  T3GRND                    25.0
  T4GRND                    25.0
  T5GRND                    25.0
C TRANSMISSION LINE TOWERS
C < n1 >< n2 ><ref1><ref2>< R  >< A  >< B  ><Leng><><> 
C TOWER 1
-1T1-GW T1GRND                0. 200.0 9.8E8 100.0 1
C TOWER 2
-1T2-GW T2GRNO                0. 100.0 9.8E8 100.0 1
C TOWER 3
-1T3-GW T3GRNO                0. 100.0 9.8E8 100.0 1
C TOWER 4
-1T4-GW T4GRNO                0. 100.0 9.8E8 100.0 1
C TOWER 5
-1T5-GW T5GRND                0. 100.0 9.8E8 100.0 1
C UNTRANSPOSED LINF. MODEL USING THE K.C. LEE UNTRANSPOSED LINE MODEL 
C COL. "-" = UNTRANSPOSED LINE 
C COL. 2: PHASE NUMBER 
C COL. 3  -8: BUS 1 
C COL. 9 -14: BUS 2 
C COL.15 -20: BUS 3 
C COL.21 -27: aus 4 (BUSSES 3 AND 4 ARE REFERENCE BUSSES) 
C COL.27 -38: MODAL RESISTANCE IN OHMS/MILE 
C COL.39 -50: MODAL SURGE IMPEDANCE 
C COL.51 -62: MODAL SPEED OF PROPAGATION IN MILES/SECOND 
C COL.63 -74: LENGTH OF THE LINE IN MILES 
C COL.76: ILINE = 1 
C COL. 79: NUMBER OF PHASES, INCLUDING THE GROUND WIRE 
C 345678901234567890123456789012345678901234567890123456789012345678901234567890
$VINTAGE, 1
-1T1-PH T2-PH              0.00000E+01 0.26159E+03 0.18628E+06-    .20E+00 1  2 
-2T1-GW T2-GW              0.00000E-01 0.13704E+03 0.18628E+06-    .20E+00 1  2 
$VINTAGE, 0 
C FIRST THE REAL PART OF ROW 1 OF MATRIX TI 
C SECOND THE IMAG. PART OF ROW 1 OF MATRIX T1 
C REAL PART OF ROW 2 ETC. 
C 3456789012345678901234567890123456789012345678901234567890
  0.91097    -0.41247
  0.000000    0.000000
  0.41247     0.91097
  0.000000    0.000000
C
$VINTAGE, 1
C 3456789012345678901234567890
-1T2-PH T3-PH T1-PH T2-PH
-2T2-GW T3-GW T1-GW T2-GW
$VINTAGE, 1
-1T3-PH T4-PH T1-PH T2-PH
-2T3-GW T4-GW T1-GW T2-GW
$VINTAGE, 1 
-1T4-PH T5-PH T1-PH T2-PH
-2T4-GW T5-GW T1-GW T2-GW
BLANK BRANCH
C SWITCH CARDS
C 345678901234567890123456789012345678901234567890123456789012345678901234567890
C < n 1>< n 2>< Tclose ><Top/Tde ><   Ie   ><Vf/CLOP ><  type  >
  T1-GW T1-PH       1.0                                                        2
BLANK SWITCH
C SOURCE CARDS  
C < n 1><>< Ampl.  >< Freq.  ><Phase/T0><   A1   ><   T1   >< TSTART >< TSTOP  >
13T1-GW -1       -1.               1.E-6     -0.5    80.E-6        0.                           
BLANK SOURCE
C NODE VOLTAGE OUTPUT
  T1-GW T1-PH T2-GW T2-PH T3-GW T3-PH T4-GW T4-PH T5-GW T5-PH    
BLANK OUTPUT  
BLANK PLOT
BEGIN NEW DATA CASE
BLANK
