BEGIN NEW DATA CASE
C FAULT ON LINE 1, 46.4 MVA SHUNT REACTOR CONNECTED.
C FIRST MISCELLANEOUS DATA CARD
C 345678901234567890123456789012345678901234567890123456789012345678901234567890
C  dT  >< Tmax >< Xopt >< Copt ><Epsiln>
C SECNDS SECONDS    0=MH    0=UF 
C                  F(HZ)   F(HZ) 
       0       0    60.0       0
C
C SECOND MISCELLANEOUS DATA CARD
C 345678901234567890123456789012345678901234567890123456789012345678901234567890
C  PRINT    PLOT NETWORK   PR.SS  PR.MAX   I PUN   PUNCH    DUMP   MULT.  OUGNOS
C 0-EACH  0-EACH    0-NO    0-NO    0-NO    0-NO    0-NO    INTO  ENERG.   PRINT
C K-K-TH  K-K-TH   1=YES   1-YES   1-YES   1-YES   1-YES    DISK STUDIES    0-NO   
       5       1       1       1       0       0       0       0       0
C
C FIRST PI-SECTION
C 345678901234567890123456789012345678901234567890123456789012345678901234567890
C < n1 >< n2 ><ref1><ref2>< R  >< L  >< C  ><Leng><><>
C < n1 >< n2 ><ref1><ref2>< R  >< A  >< B  ><Leng><><>
C < n1 >< n2 ><ref1><ref2>< R  >< L  >< C  >< R  >< L  >< C  >< R  >< L  >< C  >
 1JUAN1AP1.1 A            2.79868.8889.17497
 2JUAN1BP1.1 B            1.98173.4895-.02982.43159.4333.16455
 3JUAN1CP1.1 C            1.96733.5068-.03031.79993.3872-.02732.39959.4666.16351
 4JUAN2AP2.1 A            1.77001.9667-.00291.69332.3009-.00391.65242.0287-.0018
                          2.44219.8629.11533
 5JUAN2BP2.1 B            1.75032.1167-.00391.66082.5277-.00701.62692.2001-.0027
                          1.72824.2212-.03002.25669.9241.16495
 6JUAN2CP2.1 C            1.68261.9170-.00181.60582.2625-.00271.57202.0127-.0012
                          1.69894.2874-.03051.61424.1428-.02742.195510.055.16391
C 2ND PI-SECTION
 1P1.1 AP1.2 AJUAN1AP1.1 A
 2P1.1 BP1.2 B
 3P1.1 CP1.2 C
 4P2.1 AP2.2 A
 5P2.1 BP2.2 B
 6P2.1 CP2.2 C 
C 3RD PI-SECTION
 1P1.2 AP1.3 AJUAN1AP1.1 A
 2P1.2 BP1.3 B
 3P1.2 CP1.3 C
 4P2.2 AP2.3 A
 5P2.2 BP2.3 B
 6P2.2 CP2.3 C  
C 345618990123456189012345678901234567890
C < n1 >< n2 ><ref1><ref2>< R  >< L  >< C  >
C 4TH PI-SECTION
 1P1.3 CP1.4 CJUAN1AP1.1 A
 2P1.3 AP1.4 A
 3P1.3 BP1.4 B
 4P2.3 CP2.4 C
 5P2.3 AP2.4 A
 6P2.3 BP2.4 B
C 5TH PI-SECTION
 1P1.4 CP1.5 CJUAN1AP1.1 A
 2P1.4 AP1.5 A
 3P1.4 BP1.5 B
 4P2.4 CP2.5 C
 5P2.4 AP2.5 A
 6P2.4 BP2.5 B
C 6TH Pt-SECTION
 1P1.5 CP1.6 CJUAN1AP1.1 A
 2P1.5 AP1.6 A
 3P1.5 BP1.6 B
 4P2.5 CP2.6 C
 5P2.5 AP2.6 A  
 6P2.5 BP2.6 B  
C 7TH PI-SECTION
 1P1.6 BP1.7 BJUAN1AP1.1 A
 2P1.6 CP1.7 C
 3P1.6 AP1.7 A
 4P2.6 BP2.7 B
 5P2.6 CP2.7 C
 6P2.6 AP2.7 A 
C 8TH PI-SECTION
 1P1.7 BP1.8 BJUAN1AP1.1 A
 2P1.7 CP1.8 C
 3P1.7 AP1.8 A
 4P2.7 BP2.8 B
 5P2.7 CP2.8 C
 6P2.7 AP2.8 A 
C 9TH PI-SENCTION
 1P1.8 BP1.9 BJUAN1AP1.1 A
 2P1.8 CP1.9 C
 3P1.8 AP1.9 A
 4P2.8 BP2.9 B
 5P2.8 CP2.9 C
 6P2.8 AP2.9 A   
C SERIES CAPACITORS 
C 345678901234567890123456789012345678901234567890
C < n1 >< n2 ><ref1><ref2>< R  >< L  >< C  >
  P1.9 AP1.10A                        85.700
  P1.9 BP1.10B                        85.700
  P1.9 CP1.10C                        85.700
  P2.9 AP2.10A                        85.700
  P2.9 BP2.10B                        85.700 
  P2.9 CP2.10C                        85.700  
C SHUNT REACTORS 
C 345678901234567890123456789012345678901234567890
C < n1 >< n2 ><ref1><ref2>< R  >< L  >< C  >
  JUAN1A                        2567.4
  JUAN1B                        2567.4
  JUAN1C                        2567.4
  JUAN2A                        2567.4
  JUAN2B                        2567.4
  JUAN2C                        2567.4 
C FAULT AT TRANSPOSTION 0 2 ON 
C 34567890123456789012345678901234567890
  P1.6 C                     .01   
BLANK CARD ENDING BRANCHES
C SWITCH CARDS
C 345678901234567890123456789012345678901234567890123456789012345678901234567890
C < n 1>< n 2>< Tclose ><Top/Tde ><   Ie   ><Vf/CLOP ><  type  >
C BREAKERS AT SAN JUAN
  JUAN AJUAN1A     -1.0      1.0
  JUAN BJUAN1B     -1.0      1.0
  JUAN CJUAN1C     -1.0      1.0
  JUAN AJUAN2A      1.0     -1.0
  JUAN BJUAN2B      1.0     -1.0
  JUAN CJUAN2C      1.0     -1.0
C BREAKERS AT MCKINLEY
  P1.10AMCKINA     -1.0      1.0
  P1.10BMCKINB     -1.0      1.0
  P1.10CMCKINC     -1.0      1.0
  P2.10AMCKINA      1.0     -1.0
  P2.10BMCKINB      1.0     -1.0
  P2.10CMCKINC      1.0     -1.0 
BLANK CARD ENDING SWITCHES 
C SOURCE CARDS
C < n 1><>< Ampl.  >< Freq.  ><Phase/T0><   A1   ><   T1   >< TSTART >< TSTOP  >
14JUAN A    281700.    60.0          0.                         -1.0 
14JUAN B    281700.    60.0       -120.                         -1.0 
14JUAN C    281700.    60.0       -240.                         -1.0
BLANK CARD ENDING SOURCES 
C NODE VOLTAGE OUTPUT
C 345678901234567890123456789012345678901234567890123456789012345678901234567890
  JUAN2AJUAN2BJUAN2C
BLANK CARD ENDING NODE OUTPUT REQUESTS 
BLANK CARD ENDING PLOT
BEGIN NEW DATA CASE
BLANK TERMINATING THE CASE
