BEGIN NEW DATA CASE
C ------------------------------------------------------------------------------
C Generated by ATPDraw October, 23, 2020
C from project R:\Dropbox (PPE)\ATPcases\testfile.acp
C ATPDraw developed by H. K. Høidalen at NTNU - NORWAY 1999-2019
C ------------------------------------------------------------------------------
C  dT  >< Tmax >< Xopt >< Copt ><Epsiln>
   1.E-5      .3                        
     500       1       1       1       1       0       0       1       0
C        1         2         3         4         5         6         7         8
C 345678901234567890123456789012345678901234567890123456789012345678901234567890
/BRANCH
C < n1 >< n2 ><ref1><ref2>< R  >< L  >< C  >
C < n1 >< n2 ><ref1><ref2>< R  >< A  >< B  ><Leng><><>0
  L     R                         26.5                                         1
  R     C                     1.                                               4
  C                                     1.E3                                   0
/SWITCH
C < n 1>< n 2>< Tclose ><Top/Tde ><   Ie   ><Vf/CLOP ><  type  >
  XX0001L            .01      1.E3                                             4
/SOURCE
C < n 1><>< Ampl.  >< Freq.  ><Phase/T0><   A1   ><   T1   >< TSTART >< TSTOP  >
11XX0001 0       12.                                               -1.      1.E3
/INITIAL
 2R                  5.
 2L                  5.
 2C                  5.
 3C                                       5.
/OUTPUT
  C     R     L  
BLANK BRANCH
BLANK SWITCH
BLANK SOURCE
BLANK INITIAL
BLANK OUTPUT
BLANK PLOT
BEGIN NEW DATA CASE
BLANK
