C FILE NAME: "L500" 
C THE LINE CONSTANTS FOR A TYPICAL 500-KV 
C FLAT LINE CONFIGURATION WILL BE CALCULATED 
BEGIN NEW DATA CASE 
LINE CONSTANTS 
C 345678901234567890123456789012345678901234567890123456789012345678901234567890 
C COLUMN 1-3: PHASE NUM8ER 
C COLUMN 17,18: USUALLY A "4" 
C COLUMN 80: NUMBER OF CONOUCTORS IN THE BUNDLE 
C    4-8    9-16   19-26   27-34   35-42   43-50   51-58   59-66   59-72 73-78 
C SKIN RESIS REACT OI~M HDRIZ VTDWER VMIO SEPAR ALPHA NAME 
C 
C
 1    .5   .0426 4         1.762   -32.    102.1    32.     18.      0.        2
 2    .5   .0426 4         1.762     0.    102.1    32.     18.      0.        2
 3    .5   .0426 4         1.762    32.    102.1    32.     18.      0.        2
 0    .5   2.4   4          .385   -19.8   130.     83.5
 0    .5   2.4   4          .385    19.8   130.     83.5
BLANK CARD TERMINATING CONDUCTOR CARDS
C FREQUENCY CARD 
C 345678901234567890123456789012345678901234567890123456789012345678901234567890 
C COLUMN 44: ICAP 
C    1-8      9-18     19-28  30-35  37-42 
C EARTH FREQUENCY CARSON PRINT PRINT 
C RESIS HZ ACCURACY (Cl (Z)
    100.      60.0         1 111111 111111 1 
BLANK CARD TERMINATING FREQUENCY CARDS 
BLANK CARD TERMINATING LINE CONSTANTS CASES 
BLANK CARD TERMINATING THE CASE