C THE LINE CONSTANTS FOR A double circuit 345 kV transmission system
BEGIN NEW DATA CASE 
LINE CONSTANTS 
C 345678901234567890123456789012345678901234567890123456789012345678901234567890 
C COLUMN 1-3: PHASE NUM8ER 
C COLUMN 17,18: USUALLY A "4" 
C COLUMN 80: NUMBER OF CONOUCTORS IN THE BUNDLE 
C    4-8    9-16   19-26   27-34   35-42   43-50   51-58   59-66   59-72 73-78 
C   SKIN   RESIS   REACT    DIAM   HDRIZ  VTDWER    VMID   SEPAR   ALPHA  NAME 
C 
C LEFT TOWER
 1    .5   .1195 4         1.165   -60.    101.2             18.      0.  RAIL 2
 2    .5   .1195 4         1.165   -45.     80.              18.      0.  RAIL 2
 3    .5   .1195 4         1.165   -75.     80.              18.      0.  RAIL 2
 0    .5   1.901 4         .3854   -47.    114.           
 0    .5   1.901 4         .3854   -73.    114.           
C RIGHT TOWER                                             
 4    .5   .1191 4         1.196    60.    101.2             18.      0.CARDIN 2
 5    .5   .1191 4         1.196    45.     80.              18.      0.CARDIN 2
 6    .5   .1191 4         1.196    75.     80.              18.      0.CARDIN 2
 0    .5   6.59  4          .36     47.    114.           
 0    .5   6.59  4          .36     73.    114.           
BLANK CARD TERMINATING CONDUCTOR CARDS
C FREQUENCY CARD 
C 345678901234567890123456789012345678901234567890123456789012345678901234567890 
C COLUMN 44: ICAP 
C    1-8      9-18     19-28  30-35  37-42 
C  EARTH FREQUENCY    CARSON  PRINT PRINT 
C  RESIS        HZ  ACCURACY    (C)   (Z)
    100.       60.         1 111111 111111 1 
BLANK CARD TERMINATING FREQUENCY CARDS 
BLANK CARD TERMINATING LINE CONSTANTS CASES 
BLANK CARD TERMINATING THE CASE