BEGIN NEW DATA CASE
// TACS Studies, "EMTP Primer.pdf" Section 11, Case 11
C FIRST MISCELLANEOUS DATA CARD: 
C 345678901234567890123456789012345678901234567890123456789012345678901234567890 
C  dT  >< Tmax >< Xopt >< Copt ><Epsiln>
C SECNDS SECONDS    0=MH    0=UF 
C                  F(HZ)   F(HZ) 
  50.E-6     .1 
C
C SECOND MISCELLANEOUS DATA CARD 
C 345678901234567890123456789012345678901234567890123456789012345678901234567890
C  PRINT    PLOT NETWORK   PR.SS  PR.MAX   I PUN   PUNCH    DUMP   MULT.  OUGNOS
C 0-EACH  0-EACH    0-NO    0-NO    0-NO    0-NO    0-NO    INTO  ENERG.   PRINT
C K-K-TH  K-K-TH   1=YES   1-YES   1-YES   1-YES   1-YES    DISK STUDIES    0-NO   
    2001       1       1       1       1                       
C THE NEXT CARD SIGNALS THE INPUT OF TACS DATA
TACS HYBRID 
C TACS SIMULTANEOUS FUNCTION BLOCKS 
C N NAME       INPUT SIGNAL NAMES          GAIN            LIMITS 
C   (3-8)   (20-25.28-33.36-41.44-49)     (51-56)   (57-62.63-6S.69-74.75-80) 
C 345678901234567890123456789012345678901234567890123456789012345678901234567890
C CALCULATED THYRISTOR VOLTAGES 
  VTHY1   +SOURCE -LOAD 
  VTHV2   -SOURCE +LOAD 
BLANK CARD ENDING TACS FUNCTIONS 
C TACS SOURCES 
C TYPE NAME AMPLITUDE FRED. OR T       ANGLE OR WIDTH            T-START T-STOP
C     (3-8)  (11-20)    (21-30)            (31-40)               (61-70) (71-80) 
C EMTP VOLTAGES AT NOOES "SOURCE" AND "LOAD" 
90SOURCE 
90LOAD 
C FIRING ANGLE
01ALPHA         90.0                                                -1.0
C SOURCE VOLTAGE MAGNITUDE                                            
01E            150.0                                                -1.0 
BLANK CARD ENDING TACS SOURCES 
C TACS SEOUENTIAL FUNCTIONS AND DEVICES 
C TVPES: 98=OUTPUT GROUP 
C        99=INPUT GROUP 
C        88=INSIOE GROUP 
C TYPE NAME CODE   INPUT SIGNAL NAMES              NUMERICAL PARAMETERS
C (1-2) (3-8) (9-10)  (20-25.28-33.26-41.44-49) (51-56.57-62.63-6a.69-74.75~80) 
C 
C OR. A FREE-FORMAT FORTRAN MATHEMATICAL EXPRESSION 
C TYPE NAME          EXPRESSION 
C (1-2) (3-B)         (12-80) 
C 345678901234567890123456789012345678901234567890123456789012345678901234567890 
C REFERENCE FLUX LINKAGES CALCULATED FROM FIRING ANGLE AND 
C SOURCE VOLTAGE MAGNITUDE
98LAMDAR  = E/OMEGA * ( 1.0 - COS (ALPHA * PI / 180.) ) 
C INTEGRATES THYRISTOR NUMBER 1 VOLTAGE 
98LAMDA158+VTHY1                                     1.0   0.0   1.0VTHV1 
C COMPARES THYRISTOR NUMBER 1 FLUX LINKAGE TO REFERENCE LEVEL AND 
C GENERATES FIRING PULSE 
98GRID1 52+PLUS1                                     1.0   0.0   0.0LAMDARLAMDA1 
C INTEGRATES THYRISTOR NUMBER 2 VOLTAGE 
98LAMDA258+VTHY2                                     1.0   0.0   1.0VTHY2 
C COMPARES THVRISTOR NUMBER 2 FLUX LINKAGE TO REFERENCE LEVEL AND 
C GENERATES FIRING PULSE 
98GRID2 52+PLUS1                                     1.0   0.0   0.0LAMOARLAMOA2 
BLANK CARD ENDING TACS DEVICES 
C TACS OUTPUT VARIABLE REQUESTS 
C NAMES 
C (3-8.9-14 •...• 75-80) C
 VTHY1 VTHY2 ALPHA LAMOARLAMDA1LAMDA2GRID1 GRID2 
BLANK CARD ENDING TACS OUTPUTS 
C SINCE NO INITIAL COND1TIONS ARE SPECIFIED. ALL TACS VARIA8LES 
C EXCEPT THE EMTP NODE VOLTAGES WILL AUTOMATICALLY START AT ZERO. 
BLANK CARD ENDING TACS INITIAL CDNOITIDNS 
C BRANCHES 
C 345678901234567890123456789012345678901234567890123456789012345678901234567890 
C    3-8  9-14 15-20 21-26 27-32 33-38 39-44 
C   NODE NAMES   REFERENCE  RES. IND. CAP. 
C < n1 >< n2 ><ref1><ref2>< R  >< A  >< B  ><Leng><><>
LOAD                       1.41  3.75                                          1
LOAD                       200. 
BLANK CARD ENDING BRANCHES
C SWITCH CAROS FOR THYRISTORS 
C 345678901234567890123456789012345678901234567890123456789012345678901234567890 
C 1-2 3-8 9-14     15-24     25-34     35-44           55-60     65-70 71-76
C TYPE BUS1 BUS2    V-IG     I-HOLD    T-DElON       INITIAL          TACS 
C (11=THYRISTOR)                                     STATE      GRID CONTROL 
C (12=CONTROLLED SWITCH) 
l1SOURCELOAD                                                    GRID1          1
llLOAD SOURCE                                                   GRID2          1 
BLANK CARD ENDING SWITCHES 
C SOURCE CARDS 
C 345678901234567890123456789012345678901234567890123456789012345678901234567890 
C NODE     AMPLITUDE FREQUENCY TO IN SEC   AMPL-A1   TIME-T1   T-START    T-STOP
14S0URCE       150.     60.         0.                            -1.
BLANK CARD ENDING SOURCES 
C NODE VOLTAGE OUTPUT 
C 345678901234567890123456789012345678901234567890123456789012345678901234567890 
C    3-8  9-14 15-20 21-26 27-32 33-38 39-44 45-50 51-56 57-62 63-68 69-74 75-80 
  SOURCE 
BLANK OUTPUT  
BLANK PLOT
BEGIN NEW DATA CASE
BLANK
