BEGIN NEW DATA CASE
C Simulates self-excitation problems in IEEE second benchmark system
C for Subsynchronous resonance (SSR) studies. 55% series compensation. 
C FIRST MISCELLANEOUS DATA CARD
C 345678901234567890123456789012345678901234567890123456789012345678901234567890
C  dT  >< Tmax >< Xopt >< Copt ><Epsiln>
C SECNDS SECONDS    0=MH    0=UF 
C                  F(HZ)   F(HZ) 
 200.E-6      1.     60.       0
C 
C SECOND MISCELLANEOUS DATA CARD
C 345678901234567890123456789012345678901234567890123456789012345678901234567890
C  PRINT    PLOT NETWORK   PR.SS  PR.MAX   I PUN   PUNCH    DUMP   MULT. DIAGNOS
   20000       9       1       0       1       0       0       1     
C BRANCH
C UNCOMPENSATED TRANSMISSION LINE
C 345678901234567890123456789012345678901234567890123456789012345678901234567890
C < n1 >< n2 ><ref1><ref2>< R  >< L  >< C  ><Leng><><>   
C < n1 >< n2 ><ref1><ref2><R0/1>< X0/X1    ><Leng><><>
51BUS2 ABUS1 A              46.5       525.0
52BUS2 BBUS1 B             16.75      184.75
53BUS2 CBUS1 C                       
C COMPENSATED TRANSMISSION LINE      
51BUS2 ABUSC A              55.0       600.0
52BUS2 BBUSC B              18.5       200.0
53BUS2 CBUSC C
C 55 % SERIES CAPACITORS
  BUSC ABUS1 A                        9090.9                                   2
  BUSC BBUS1 B                        9090.9                                   2
  BUSC CBUS1 C                        9090.9                                   2
C SOURCE IMPEDANCE TO INFINITE BUS  
  BUS1 ABUS0 A               3.5        75.0
  BUS1 BBUS0 B               3.5        75.0
  BUS1 CBUS0 C               3.5        75.0 
C GENERATOR STEPUP TRANSFORMER (NO MAGNETIZING IMPEDANCE)
C 345678901234567890123456789012345678901234567890123456789012345678901234567890
C         3-14 15-20       17-32 33-38 39-44 45-50
C REQUESTWORD>   BUS           I  FLUX   BUS R-MAG 
  TRANSFORMER                          WNDG1
            9999
C < n1 >< n2 ><ref1><ref2>< R  >< L  >< V  ><Leng><><>
 1GEN1 AGEN1 B             .0015 .1452  22.0 
 2BUS2 A                     .25 25.0 288.67 
C SECOND AND THIRD TRANSFORMER WINDINGS USE SAME DATA
  TRANSFORMER  WNDG1                   WNDG2 
 1GEN1 BGEN1 C 
 2BUS2 B 
  TRANSFORMER  WNDG1                   WNDG3
 1GEN1 CGEN1 A 
 2BUS2 C   
C CONNECTIVITY CAPACITORS FOR GENERATOR TERMINALS AND DELTA WINDING
  GEN1 A                                10.0 
  GEN1 B                                10.0
  GEN1 C                                10.0
BLANK CARD ENDING BRANCH DATA 
C FAULT SWITCHES 
C < n 1>< n 2>< Tclose ><Top/Tde ><   Ie   ><Vf/CLOP ><  type  >
  BUS1 A            .0      .0002
  BUS1 B            .0      .0002
  BUS1 C            .0      .0002 
BLANK CARD ENDING SWITCH DATA 
C INFINITE BUS SOURCE VOLTAGE
C < n 1><>< Ampl.  >< Freq.  ><Phase/T0><   A1   ><   T1   >< TSTART >< TSTOP  >
14BUS0 A  408248.290      60.       0.                                      -1.
14BUS0 B  408248.290      60.     240.                                      -1.
14BUS0 C  408248.290      60.     120.                                      -1.
C GENERATOR INPUT DATA
C 345678901234567890123456789012345678901234567890123456789012345678901234567890
C   PEAK TERMINAL VOLTS. FREQUENCY, ANGLE
C < n 1><>< Volts  >< Freq.  ><  Angle >
59GEN1 A  17962.9248      60.     -30.
59GEN1 B 
59GEN1 C
C 345678901234567890123456789012345678901234567890123456789012345678901234567890
TOLERANCES     1.E-9     1.E-4     1.E-5  
C CONTROL CARD TO OPTIMIZE UNSPECIFIED MODEL PARAMETERS
C 345678901234567890123456789012345678901234567890123456789012345678901234567890
C                          25-32
PARAMETER FITTING            2.0 
C                                  RATED MVA AND KV     FIELD CURRENT
C 345678901234567890123456789012345678901234567890123456789012345678901234567890
C <><><NP>< SMOUTP >< SMOUTQ ><  RMVA  ><   RkV  >< AGLINE ><   S1   ><   S2   >
 4 2 1   2                          600.       22.     1970.     1970.     2600.
0 // blank card will be ignored, use 0 for a blank card
C   RA   ><   XL   ><   XD   ><   XQ   ><   XD'  ><   XQ'  ><   XD"  ><   XQ"  >
     .0045       .14      1.65      1.59       .25       .46       .20       .20
C     TD0'      TQ0'      TD0"     TQ0"        X0
       4.5       .55       .04       .09       .14 
C SHAFT SYSTEM DATA 
C MASS NUMBER   TORQUE INERTIA SPEED DEV. SPRING
C           FRACTION   DAMPING                      CONSTANT
C 345678901234567890123456789012345678901234567890123456789012345678901234567890
 1                     .001383                          4.39  
 2                     .176204                         97.97
 3                .5   .310729                         50.12
 4                .5   .049912 
BLANK CARO ENDING MASS DATA 
C OUTPUT DATA REQUESTS FOR THE GENERATOR 
C GROUP 1 = ELECTRICAL VARIABLES
C 345678901234567890123456789012345678901234567890123456789012345678901234567890
C       < I6 >< I6 >< I6 >< I6 >< I6 >< I6 >< I6 >< I6 >< I6 >< I6 >< I6 >< I6 >
C  1=ID  2=IQ  3=I0  4=IF. S=IKD. 6=IG. 7=IKO. 8=IA. 9=IB 
C  10=IC. 14=TQ GEN
  1          1     2     3     4     5     6     7     8    9
  1         10    14 
C GROUP 2 = MECHANICAL ANGLES 
C SECOND MASS (GENERATOR ROTOR)
  2          2 
C GROUP 3 = MECHANICAL SPEEO OEVIATIONS 
C SECOND MASS (GENERATOR ROTOR)
  3          2 
C GROUP 4   = SHAFT TOROUES 
C ALL THREE SHAFTS
  4          1     2     3 
C GROUP 5 = STEADY STATE OUTPUTS 
C  1 = MACHINE PARAMETERS 
C  2 = INITIAL CONDITIONS
  5          1     2 
BLANK CARD ENDING OUTPUT 
C END OF GENERATOR INPUT DATA 
  FINISH 
BLANK CARD ENDING ALL SOURCE DATA
C 345678901234567890123456789012345678901234567890123456789012345678901234567890
  GEN1 AGEN1 BGEN1 CBUS2 ABUS2 BBUS2 C 
BLANK CARD ENDING NODE VOLTAGE OUTPUT REQUESTS
BLANK CARD ENDING PLOT
BEGIN NEW DATA CASE
BLANK TERMINATING THE CASE

